3VTE-89_299-480_538-CBGA.pdb
 OpenBabel10022021533D

 21 21  0  0  1  0  0  0  0  0999 V2000
   60.3090   65.6040  -21.8980 N   0  0  0  0  0  2  0  0  0  0  0  0
   59.0260   65.2530  -21.3050 C   0  0  2  0  0  0  0  0  0  0  0  0
   58.2110   66.5430  -21.1710 C   0  0  0  0  0  3  0  0  0  0  0  0
   58.0680   67.0860  -20.0810 O   0  0  0  0  0  0  0  0  0  0  0  0
   59.2140   64.5380  -19.9600 C   0  0  0  0  0  0  0  0  0  0  0  0
   59.8570   63.1810  -20.1010 C   0  0  0  0  0  0  0  0  0  0  0  0
   59.5080   62.3580  -21.1800 C   0  0  0  0  0  0  0  0  0  0  0  0
   60.8030   62.7030  -19.1740 C   0  0  0  0  0  0  0  0  0  0  0  0
   60.0580   61.0910  -21.3630 C   0  0  0  0  0  0  0  0  0  0  0  0
   61.3800   61.4260  -19.3440 C   0  0  0  0  0  0  0  0  0  0  0  0
   60.9880   60.6190  -20.4610 C   0  0  0  0  0  0  0  0  0  0  0  0
   61.4870   59.3450  -20.7130 O   0  0  0  0  0  0  0  0  0  0  0  0
   58.5021   64.5809  -21.9847 H   0  0  0  0  0  0  0  0  0  0  0  0
   59.8451   65.1571  -19.3225 H   0  0  0  0  0  0  0  0  0  0  0  0
   58.2405   64.4194  -19.4843 H   0  0  0  0  0  0  0  0  0  0  0  0
   58.7855   62.7194  -21.8968 H   0  0  0  0  0  0  0  0  0  0  0  0
   61.0878   63.3149  -18.3309 H   0  0  0  0  0  0  0  0  0  0  0  0
   59.7584   60.4837  -22.2043 H   0  0  0  0  0  0  0  0  0  0  0  0
   62.1109   61.0604  -18.6379 H   0  0  0  0  0  0  0  0  0  0  0  0
   60.7652   58.7120  -20.7089 H   0  0  0  0  0  0  0  0  0  0  0  0
   60.5094   66.5649  -22.1360 H   0  0  0  0  0  0  0  0  0  0  0  0
  1  2  1  0  0  0  0
  2  5  1  0  0  0  0
  2  3  1  0  0  0  0
  2 13  1  6  0  0  0
  3  4  2  0  0  0  0
  5  6  1  0  0  0  0
  6  7  2  0  0  0  0
  6  8  1  0  0  0  0
  7  9  1  0  0  0  0
  8 10  2  0  0  0  0
  9 11  2  0  0  0  0
 10 11  1  0  0  0  0
 11 12  1  0  0  0  0
 14  5  1  0  0  0  0
 15  5  1  0  0  0  0
 16  7  1  0  0  0  0
 17  8  1  0  0  0  0
 18  9  1  0  0  0  0
 19 10  1  0  0  0  0
 20 12  1  0  0  0  0
 21  1  1  0  0  0  0
M  END
$$$$
